
-------------------------------------------------------------------------
|    ___ _   _ ___                                                      |
|   / __| | | |_  )   Release 8.0.1 "Harrier"                           |
|   \__ \ |_| |/ /                                                      |
|   |___/\___//___|   Suite (Computational Fluid Dynamics Code)         |
|                                                                       |
-------------------------------------------------------------------------
| SU2 Project Website: https://su2code.github.io                        |
|                                                                       |
| The SU2 Project is maintained by the SU2 Foundation                   |
| (http://su2foundation.org)                                            |
-------------------------------------------------------------------------
| Copyright 2012-2024, SU2 Contributors                                 |
|                                                                       |
| SU2 is free software; you can redistribute it and/or                  |
| modify it under the terms of the GNU Lesser General Public            |
| License as published by the Free Software Foundation; either          |
| version 2.1 of the License, or (at your option) any later version.    |
|                                                                       |
| SU2 is distributed in the hope that it will be useful,                |
| but WITHOUT ANY WARRANTY; without even the implied warranty of        |
| MERCHANTABILITY or FITNESS FOR A PARTICULAR PURPOSE. See the GNU      |
| Lesser General Public License for more details.                       |
|                                                                       |
| You should have received a copy of the GNU Lesser General Public      |
| License along with SU2. If not, see <http://www.gnu.org/licenses/>.   |
-------------------------------------------------------------------------


Problem definition:

Compressible Euler equations.
Mach number: 0.8395.
Angle of attack (AoA): 3.06 deg, and angle of sideslip (AoS): 0 deg.
Non-Dimensional simulation (V=1.0, Rho=1.0, T=1.0 at the farfield).
The reference area is 0.758602 m^2.
The reference length is 1 m.


Problem definition:

Inviscid flow: Computing density based on free-stream
temperature and pressure using the ideal gas law.
Force coefficients computed using free-stream values.
-- Input conditions:
Fluid Model: STANDARD_AIR 
Specific gas constant: 287.058 N.m/kg.K.
Specific gas constant (non-dim): 1.01352
Specific Heat Ratio: 1.4000 
Free-stream static pressure: 101325 Pa.
Free-stream total pressure: 160751 Pa.
Free-stream temperature: 288.15 K.
Free-stream total temperature: 328.765 K.
Free-stream density: 1.22498 kg/m^3.
Free-stream velocity: (285.272, 0, 15.25) m/s. Magnitude: 285.679 m/s.
Free-stream total energy per unit mass: 247596 m^2/s^2.
-- Reference values:
Reference specific gas constant: 283.23 N.m/kg.K.
Reference pressure: 99973.8 Pa.
Reference temperature: 288.15 K.
Reference density: 1.22498 kg/m^3.
Reference velocity: 285.679 m/s.
Reference energy per unit mass: 81612.7 m^2/s^2.
-- Resulting non-dimensional state:
Mach number (non-dim): 0.8395
Specific gas constant (non-dim): 1.01352
Free-stream temperature (non-dim): 1
Free-stream pressure (non-dim): 1.01352
Free-stream density (non-dim): 1
Free-stream velocity (non-dim): (0.998574, 0, 0.0533817). Magnitude: 1
Free-stream total energy per unit mass (non-dim): 3.03379


Forces breakdown:

Center of Pressure: X=-0.011047Z+0.471590 m.

NOTE: Multiply forces by the non-dimensional factor: 0.379301, and the reference factor: 99973.765264
to obtain the dimensional force.

Total CL:       0.286167 | Pressure (   99%):    0.286167 | Friction (    0%):    0.000000 | Momentum (    0%):    0.000000
Total CD:       0.012130 | Pressure (   99%):    0.012130 | Friction (    0%):    0.000000 | Momentum (    0%):    0.000000
Total CSF:      0.015081 | Pressure (   99%):    0.015081 | Friction (    0%):    0.000000 | Momentum (    0%):    0.000000
Total CL/CD:   23.592600 | Pressure (  100%):   23.592600 | Friction (    0%):    0.000000 | Momentum (    0%):    0.000000
Total CMx:      0.150505 | Pressure (   99%):    0.150505 | Friction (    0%):    0.000000 | Momentum (    0%):    0.000000
Total CMy:     -0.063465 | Pressure (  100%):   -0.063465 | Friction (    0%):    0.000000 | Momentum (    0%):    0.000000
Total CMz:      0.014071 | Pressure (   99%):    0.014071 | Friction (    0%):    0.000000 | Momentum (    0%):    0.000000
Total CFx:     -0.003164 | Pressure (  100%):   -0.003164 | Friction (    0%):    0.000000 | Momentum (    0%):    0.000000
Total CFy:      0.015081 | Pressure (   99%):    0.015081 | Friction (    0%):    0.000000 | Momentum (    0%):    0.000000
Total CFz:      0.286407 | Pressure (   99%):    0.286407 | Friction (    0%):    0.000000 | Momentum (    0%):    0.000000


Surface name: UPPER_SIDE

Total CL    (  132%):    0.379832 | Pressure (   99%):    0.379832 | Friction (    0%):    0.000000 | Momentum (    0%):    0.000000
Total CD    (   42%):    0.005166 | Pressure (   99%):    0.005166 | Friction (    0%):    0.000000 | Momentum (    0%):    0.000000
Total CSF   (   88%):    0.013385 | Pressure (   99%):    0.013385 | Friction (    0%):    0.000000 | Momentum (    0%):    0.000000
Total CL/CD (  311%):   73.527542 | Pressure (  100%):   73.527542 | Friction (    0%):    0.000000 | Momentum (    0%):    0.000000
Total CMx   (  135%):    0.204209 | Pressure (   99%):    0.204209 | Friction (    0%):    0.000000 | Momentum (    0%):    0.000000
Total CMy   (  145%):   -0.092196 | Pressure (  100%):   -0.092196 | Friction (    0%):    0.000000 | Momentum (    0%):    0.000000
Total CMz   (  104%):    0.014682 | Pressure (   99%):    0.014682 | Friction (    0%):    0.000000 | Momentum (    0%):    0.000000
Total CFx   (  477%):   -0.015118 | Pressure (  100%):   -0.015118 | Friction (    0%):    0.000000 | Momentum (    0%):    0.000000
Total CFy   (   88%):    0.013385 | Pressure (   99%):    0.013385 | Friction (    0%):    0.000000 | Momentum (    0%):    0.000000
Total CFz   (  132%):    0.379566 | Pressure (   99%):    0.379566 | Friction (    0%):    0.000000 | Momentum (    0%):    0.000000

Surface name: LOWER_SIDE

Total CL    (  -33%):   -0.094549 | Pressure (  100%):   -0.094549 | Friction (    0%):    0.000000 | Momentum (    0%):    0.000000
Total CD    (   59%):    0.007175 | Pressure (   99%):    0.007175 | Friction (    0%):    0.000000 | Momentum (    0%):    0.000000
Total CSF   (  -37%):   -0.005689 | Pressure (  100%):   -0.005689 | Friction (    0%):    0.000000 | Momentum (    0%):    0.000000
Total CL/CD (  -55%):  -13.178418 | Pressure (  100%):  -13.178418 | Friction (    0%):    0.000000 | Momentum (    0%):    0.000000
Total CMx   (  -36%):   -0.054746 | Pressure (  100%):   -0.054746 | Friction (    0%):    0.000000 | Momentum (    0%):    0.000000
Total CMy   (  -46%):    0.029224 | Pressure (   99%):    0.029224 | Friction (    0%):    0.000000 | Momentum (    0%):    0.000000
Total CMz   (  -38%):   -0.005386 | Pressure (  100%):   -0.005386 | Friction (    0%):    0.000000 | Momentum (    0%):    0.000000
Total CFx   ( -385%):    0.012212 | Pressure (   99%):    0.012212 | Friction (    0%):    0.000000 | Momentum (    0%):    0.000000
Total CFy   (  -37%):   -0.005689 | Pressure (  100%):   -0.005689 | Friction (    0%):    0.000000 | Momentum (    0%):    0.000000
Total CFz   (  -32%):   -0.094032 | Pressure (  100%):   -0.094032 | Friction (    0%):    0.000000 | Momentum (    0%):    0.000000

Surface name: TIP

Total CL    (    0%):    0.000885 | Pressure (   99%):    0.000885 | Friction (    0%):    0.000000 | Momentum (    0%):    0.000000
Total CD    (   -1%):   -0.000211 | Pressure (  100%):   -0.000211 | Friction (    0%):    0.000000 | Momentum (    0%):    0.000000
Total CSF   (   48%):    0.007385 | Pressure (   99%):    0.007385 | Friction (    0%):    0.000000 | Momentum (    0%):    0.000000
Total CL/CD (  -17%):   -4.195342 | Pressure (  100%):   -4.195342 | Friction (    0%):    0.000000 | Momentum (    0%):    0.000000
Total CMx   (    0%):    0.001042 | Pressure (   99%):    0.001042 | Friction (    0%):    0.000000 | Momentum (    0%):    0.000000
Total CMy   (    0%):   -0.000493 | Pressure (  100%):   -0.000493 | Friction (    0%):    0.000000 | Momentum (    0%):    0.000000
Total CMz   (   33%):    0.004775 | Pressure (   99%):    0.004775 | Friction (    0%):    0.000000 | Momentum (    0%):    0.000000
Total CFx   (    8%):   -0.000258 | Pressure (  100%):   -0.000258 | Friction (    0%):    0.000000 | Momentum (    0%):    0.000000
Total CFy   (   48%):    0.007385 | Pressure (   99%):    0.007385 | Friction (    0%):    0.000000 | Momentum (    0%):    0.000000
Total CFz   (    0%):    0.000872 | Pressure (   99%):    0.000872 | Friction (    0%):    0.000000 | Momentum (    0%):    0.000000

