
-------------------------------------------------------------------------
|    ___ _   _ ___                                                      |
|   / __| | | |_  )   Release 8.0.1 "Harrier"                           |
|   \__ \ |_| |/ /                                                      |
|   |___/\___//___|   Suite (Computational Fluid Dynamics Code)         |
|                                                                       |
-------------------------------------------------------------------------
| SU2 Project Website: https://su2code.github.io                        |
|                                                                       |
| The SU2 Project is maintained by the SU2 Foundation                   |
| (http://su2foundation.org)                                            |
-------------------------------------------------------------------------
| Copyright 2012-2024, SU2 Contributors                                 |
|                                                                       |
| SU2 is free software; you can redistribute it and/or                  |
| modify it under the terms of the GNU Lesser General Public            |
| License as published by the Free Software Foundation; either          |
| version 2.1 of the License, or (at your option) any later version.    |
|                                                                       |
| SU2 is distributed in the hope that it will be useful,                |
| but WITHOUT ANY WARRANTY; without even the implied warranty of        |
| MERCHANTABILITY or FITNESS FOR A PARTICULAR PURPOSE. See the GNU      |
| Lesser General Public License for more details.                       |
|                                                                       |
| You should have received a copy of the GNU Lesser General Public      |
| License along with SU2. If not, see <http://www.gnu.org/licenses/>.   |
-------------------------------------------------------------------------


Problem definition:

Compressible Euler equations.
Mach number: 0.8395.
Angle of attack (AoA): 0 deg, and angle of sideslip (AoS): 0 deg.
Non-Dimensional simulation (V=1.0, Rho=1.0, T=1.0 at the farfield).
The reference area is 0.758602 m^2.
The reference length is 1 m.


Problem definition:

Inviscid flow: Computing density based on free-stream
temperature and pressure using the ideal gas law.
Force coefficients computed using free-stream values.
-- Input conditions:
Fluid Model: STANDARD_AIR 
Specific gas constant: 287.058 N.m/kg.K.
Specific gas constant (non-dim): 1.01352
Specific Heat Ratio: 1.4000 
Free-stream static pressure: 101325 Pa.
Free-stream total pressure: 160751 Pa.
Free-stream temperature: 288.15 K.
Free-stream total temperature: 328.765 K.
Free-stream density: 1.22498 kg/m^3.
Free-stream velocity: (285.679, 0, 0) m/s. Magnitude: 285.679 m/s.
Free-stream total energy per unit mass: 247596 m^2/s^2.
-- Reference values:
Reference specific gas constant: 283.23 N.m/kg.K.
Reference pressure: 99973.8 Pa.
Reference temperature: 288.15 K.
Reference density: 1.22498 kg/m^3.
Reference velocity: 285.679 m/s.
Reference energy per unit mass: 81612.7 m^2/s^2.
-- Resulting non-dimensional state:
Mach number (non-dim): 0.8395
Specific gas constant (non-dim): 1.01352
Free-stream temperature (non-dim): 1
Free-stream pressure (non-dim): 1.01352
Free-stream density (non-dim): 1
Free-stream velocity (non-dim): (1, 0, 0). Magnitude: 1
Free-stream total energy per unit mass (non-dim): 3.03379


Forces breakdown:

Center of Pressure: X=-7.449761Z+0.576152 m.

NOTE: Multiply forces by the non-dimensional factor: 0.379301, and the reference factor: 99973.765264
to obtain the dimensional force.

Total CL:      -0.000173 | Pressure (  100%):   -0.000173 | Friction (    0%):    0.000000 | Momentum (    0%):    0.000000
Total CD:       0.001287 | Pressure (   99%):    0.001287 | Friction (    0%):    0.000000 | Momentum (    0%):    0.000000
Total CSF:      0.007988 | Pressure (   99%):    0.007988 | Friction (    0%):    0.000000 | Momentum (    0%):    0.000000
Total CL/CD:   -0.134232 | Pressure (  100%):   -0.134232 | Friction (    0%):    0.000000 | Momentum (    0%):    0.000000
Total CMx:     -0.000142 | Pressure (  100%):   -0.000142 | Friction (    0%):    0.000000 | Momentum (    0%):    0.000000
Total CMy:      0.000056 | Pressure (   99%):    0.000056 | Friction (    0%):    0.000000 | Momentum (    0%):    0.000000
Total CMz:      0.007600 | Pressure (   99%):    0.007600 | Friction (    0%):    0.000000 | Momentum (    0%):    0.000000
Total CFx:      0.001287 | Pressure (   99%):    0.001287 | Friction (    0%):    0.000000 | Momentum (    0%):    0.000000
Total CFy:      0.007988 | Pressure (   99%):    0.007988 | Friction (    0%):    0.000000 | Momentum (    0%):    0.000000
Total CFz:     -0.000173 | Pressure (  100%):   -0.000173 | Friction (    0%):    0.000000 | Momentum (    0%):    0.000000


Surface name: UPPER_SIDE

Total CL    (-124882%):    0.215824 | Pressure (   99%):    0.215824 | Friction (    0%):    0.000000 | Momentum (    0%):    0.000000
Total CD    (   62%):    0.000802 | Pressure (   99%):    0.000802 | Friction (    0%):    0.000000 | Momentum (    0%):    0.000000
Total CSF   (   29%):    0.002365 | Pressure (   99%):    0.002365 | Friction (    0%):    0.000000 | Momentum (    0%):    0.000000
Total CL/CD (-200480%):  269.109917 | Pressure (  100%):  269.109917 | Friction (    0%):    0.000000 | Momentum (    0%):    0.000000
Total CMx   (-81368%):    0.115395 | Pressure (   99%):    0.115395 | Friction (    0%):    0.000000 | Momentum (    0%):    0.000000
Total CMy   (-99020%):   -0.055814 | Pressure (  100%):   -0.055814 | Friction (    0%):    0.000000 | Momentum (    0%):    0.000000
Total CMz   (   35%):    0.002708 | Pressure (   99%):    0.002708 | Friction (    0%):    0.000000 | Momentum (    0%):    0.000000
Total CFx   (   62%):    0.000802 | Pressure (   99%):    0.000802 | Friction (    0%):    0.000000 | Momentum (    0%):    0.000000
Total CFy   (   29%):    0.002365 | Pressure (   99%):    0.002365 | Friction (    0%):    0.000000 | Momentum (    0%):    0.000000
Total CFz   (-124882%):    0.215824 | Pressure (   99%):    0.215824 | Friction (    0%):    0.000000 | Momentum (    0%):    0.000000

Surface name: LOWER_SIDE

Total CL    (124980%):   -0.215994 | Pressure (  100%):   -0.215994 | Friction (    0%):    0.000000 | Momentum (    0%):    0.000000
Total CD    (   62%):    0.000802 | Pressure (   99%):    0.000802 | Friction (    0%):    0.000000 | Momentum (    0%):    0.000000
Total CSF   (   29%):    0.002367 | Pressure (   99%):    0.002367 | Friction (    0%):    0.000000 | Momentum (    0%):    0.000000
Total CL/CD (200672%): -269.367214 | Pressure (  100%): -269.367214 | Friction (    0%):    0.000000 | Momentum (    0%):    0.000000
Total CMx   (81465%):   -0.115533 | Pressure (  100%):   -0.115533 | Friction (    0%):    0.000000 | Momentum (    0%):    0.000000
Total CMy   (99117%):    0.055869 | Pressure (   99%):    0.055869 | Friction (    0%):    0.000000 | Momentum (    0%):    0.000000
Total CMz   (   35%):    0.002706 | Pressure (   99%):    0.002706 | Friction (    0%):    0.000000 | Momentum (    0%):    0.000000
Total CFx   (   62%):    0.000802 | Pressure (   99%):    0.000802 | Friction (    0%):    0.000000 | Momentum (    0%):    0.000000
Total CFy   (   29%):    0.002367 | Pressure (   99%):    0.002367 | Friction (    0%):    0.000000 | Momentum (    0%):    0.000000
Total CFz   (124980%):   -0.215994 | Pressure (  100%):   -0.215994 | Friction (    0%):    0.000000 | Momentum (    0%):    0.000000

Surface name: TIP

Total CL    (    1%):   -0.000003 | Pressure (  100%):   -0.000003 | Friction (    0%):    0.000000 | Momentum (    0%):    0.000000
Total CD    (  -24%):   -0.000316 | Pressure (  100%):   -0.000316 | Friction (    0%):    0.000000 | Momentum (    0%):    0.000000
Total CSF   (   40%):    0.003256 | Pressure (   99%):    0.003256 | Friction (    0%):    0.000000 | Momentum (    0%):    0.000000
Total CL/CD (   -7%):    0.010527 | Pressure (   99%):    0.010527 | Friction (    0%):    0.000000 | Momentum (    0%):    0.000000
Total CMx   (    2%):   -0.000004 | Pressure (  100%):   -0.000004 | Friction (    0%):    0.000000 | Momentum (    0%):    0.000000
Total CMy   (    3%):    0.000002 | Pressure (   99%):    0.000002 | Friction (    0%):    0.000000 | Momentum (    0%):    0.000000
Total CMz   (   28%):    0.002186 | Pressure (   99%):    0.002186 | Friction (    0%):    0.000000 | Momentum (    0%):    0.000000
Total CFx   (  -24%):   -0.000316 | Pressure (  100%):   -0.000316 | Friction (    0%):    0.000000 | Momentum (    0%):    0.000000
Total CFy   (   40%):    0.003256 | Pressure (   99%):    0.003256 | Friction (    0%):    0.000000 | Momentum (    0%):    0.000000
Total CFz   (    1%):   -0.000003 | Pressure (  100%):   -0.000003 | Friction (    0%):    0.000000 | Momentum (    0%):    0.000000

