
-------------------------------------------------------------------------
|    ___ _   _ ___                                                      |
|   / __| | | |_  )   Release 8.0.1 "Harrier"                           |
|   \__ \ |_| |/ /                                                      |
|   |___/\___//___|   Suite (Computational Fluid Dynamics Code)         |
|                                                                       |
-------------------------------------------------------------------------
| SU2 Project Website: https://su2code.github.io                        |
|                                                                       |
| The SU2 Project is maintained by the SU2 Foundation                   |
| (http://su2foundation.org)                                            |
-------------------------------------------------------------------------
| Copyright 2012-2024, SU2 Contributors                                 |
|                                                                       |
| SU2 is free software; you can redistribute it and/or                  |
| modify it under the terms of the GNU Lesser General Public            |
| License as published by the Free Software Foundation; either          |
| version 2.1 of the License, or (at your option) any later version.    |
|                                                                       |
| SU2 is distributed in the hope that it will be useful,                |
| but WITHOUT ANY WARRANTY; without even the implied warranty of        |
| MERCHANTABILITY or FITNESS FOR A PARTICULAR PURPOSE. See the GNU      |
| Lesser General Public License for more details.                       |
|                                                                       |
| You should have received a copy of the GNU Lesser General Public      |
| License along with SU2. If not, see <http://www.gnu.org/licenses/>.   |
-------------------------------------------------------------------------


Problem definition:

Compressible Euler equations.
Mach number: 0.3.
Angle of attack (AoA): 6.12 deg, and angle of sideslip (AoS): 0 deg.
Non-Dimensional simulation (V=1.0, Rho=1.0, T=1.0 at the farfield).
The reference area is 0.758602 m^2.
The reference length is 1 m.


Problem definition:

Inviscid flow: Computing density based on free-stream
temperature and pressure using the ideal gas law.
Force coefficients computed using free-stream values.
-- Input conditions:
Fluid Model: STANDARD_AIR 
Specific gas constant: 287.058 N.m/kg.K.
Specific gas constant (non-dim): 7.93651
Specific Heat Ratio: 1.4000 
Free-stream static pressure: 101325 Pa.
Free-stream total pressure: 107853 Pa.
Free-stream temperature: 288.15 K.
Free-stream total temperature: 293.337 K.
Free-stream density: 1.22498 kg/m^3.
Free-stream velocity: (101.507, 0, 10.8838) m/s. Magnitude: 102.089 m/s.
Free-stream total energy per unit mass: 212000 m^2/s^2.
-- Reference values:
Reference specific gas constant: 36.1693 N.m/kg.K.
Reference pressure: 12767 Pa.
Reference temperature: 288.15 K.
Reference density: 1.22498 kg/m^3.
Reference velocity: 102.089 m/s.
Reference energy per unit mass: 10422.2 m^2/s^2.
-- Resulting non-dimensional state:
Mach number (non-dim): 0.3
Specific gas constant (non-dim): 7.93651
Free-stream temperature (non-dim): 1
Free-stream pressure (non-dim): 7.93651
Free-stream density (non-dim): 1
Free-stream velocity (non-dim): (0.994301, 0, 0.106611). Magnitude: 1
Free-stream total energy per unit mass (non-dim): 20.3413


Forces breakdown:

Center of Pressure: X=-0.068945Z+0.474208 m.

NOTE: Multiply forces by the non-dimensional factor: 0.379301, and the reference factor: 12766.950000
to obtain the dimensional force.

Total CL:       0.408614 | Pressure (   99%):    0.408614 | Friction (    0%):    0.000000 | Momentum (    0%):    0.000000
Total CD:       0.015526 | Pressure (   99%):    0.015526 | Friction (    0%):    0.000000 | Momentum (    0%):    0.000000
Total CSF:      0.029315 | Pressure (   99%):    0.029315 | Friction (    0%):    0.000000 | Momentum (    0%):    0.000000
Total CL/CD:   26.317978 | Pressure (  100%):   26.317978 | Friction (    0%):    0.000000 | Momentum (    0%):    0.000000
Total CMx:      0.217901 | Pressure (   99%):    0.217901 | Friction (    0%):    0.000000 | Momentum (    0%):    0.000000
Total CMy:     -0.091464 | Pressure (  100%):   -0.091464 | Friction (    0%):    0.000000 | Momentum (    0%):    0.000000
Total CMz:      0.026818 | Pressure (   99%):    0.026818 | Friction (    0%):    0.000000 | Momentum (    0%):    0.000000
Total CFx:     -0.028125 | Pressure (  100%):   -0.028125 | Friction (    0%):    0.000000 | Momentum (    0%):    0.000000
Total CFy:      0.029315 | Pressure (   99%):    0.029315 | Friction (    0%):    0.000000 | Momentum (    0%):    0.000000
Total CFz:      0.407940 | Pressure (   99%):    0.407940 | Friction (    0%):    0.000000 | Momentum (    0%):    0.000000


Surface name: UPPER_SIDE

Total CL    (   89%):    0.365195 | Pressure (   99%):    0.365195 | Friction (    0%):    0.000000 | Momentum (    0%):    0.000000
Total CD    (  -37%):   -0.005750 | Pressure (  100%):   -0.005750 | Friction (    0%):    0.000000 | Momentum (    0%):    0.000000
Total CSF   (  102%):    0.030070 | Pressure (   99%):    0.030070 | Friction (    0%):    0.000000 | Momentum (    0%):    0.000000
Total CL/CD ( -241%):  -63.516757 | Pressure (  100%):  -63.516757 | Friction (    0%):    0.000000 | Momentum (    0%):    0.000000
Total CMx   (   90%):    0.197702 | Pressure (   99%):    0.197702 | Friction (    0%):    0.000000 | Momentum (    0%):    0.000000
Total CMy   (   92%):   -0.084237 | Pressure (  100%):   -0.084237 | Friction (    0%):    0.000000 | Momentum (    0%):    0.000000
Total CMz   (  112%):    0.030090 | Pressure (   99%):    0.030090 | Friction (    0%):    0.000000 | Momentum (    0%):    0.000000
Total CFx   (  158%):   -0.044651 | Pressure (  100%):   -0.044651 | Friction (    0%):    0.000000 | Momentum (    0%):    0.000000
Total CFy   (  102%):    0.030070 | Pressure (   99%):    0.030070 | Friction (    0%):    0.000000 | Momentum (    0%):    0.000000
Total CFz   (   88%):    0.362501 | Pressure (   99%):    0.362501 | Friction (    0%):    0.000000 | Momentum (    0%):    0.000000

Surface name: LOWER_SIDE

Total CL    (   10%):    0.042949 | Pressure (   99%):    0.042949 | Friction (    0%):    0.000000 | Momentum (    0%):    0.000000
Total CD    (  136%):    0.021166 | Pressure (   99%):    0.021166 | Friction (    0%):    0.000000 | Momentum (    0%):    0.000000
Total CSF   (  -34%):   -0.009993 | Pressure (  100%):   -0.009993 | Friction (    0%):    0.000000 | Momentum (    0%):    0.000000
Total CL/CD (    7%):    2.029178 | Pressure (  100%):    2.029178 | Friction (    0%):    0.000000 | Momentum (    0%):    0.000000
Total CMx   (    9%):    0.019626 | Pressure (   99%):    0.019626 | Friction (    0%):    0.000000 | Momentum (    0%):    0.000000
Total CMy   (    7%):   -0.006990 | Pressure (  100%):   -0.006990 | Friction (    0%):    0.000000 | Momentum (    0%):    0.000000
Total CMz   (  -34%):   -0.009195 | Pressure (  100%):   -0.009195 | Friction (    0%):    0.000000 | Momentum (    0%):    0.000000
Total CFx   (  -58%):    0.016466 | Pressure (   99%):    0.016466 | Friction (    0%):    0.000000 | Momentum (    0%):    0.000000
Total CFy   (  -34%):   -0.009993 | Pressure (  100%):   -0.009993 | Friction (    0%):    0.000000 | Momentum (    0%):    0.000000
Total CFz   (   11%):    0.044960 | Pressure (   99%):    0.044960 | Friction (    0%):    0.000000 | Momentum (    0%):    0.000000

Surface name: TIP

Total CL    (    0%):    0.000470 | Pressure (   99%):    0.000470 | Friction (    0%):    0.000000 | Momentum (    0%):    0.000000
Total CD    (    0%):    0.000110 | Pressure (   99%):    0.000110 | Friction (    0%):    0.000000 | Momentum (    0%):    0.000000
Total CSF   (   31%):    0.009238 | Pressure (   99%):    0.009238 | Friction (    0%):    0.000000 | Momentum (    0%):    0.000000
Total CL/CD (   16%):    4.269464 | Pressure (  100%):    4.269464 | Friction (    0%):    0.000000 | Momentum (    0%):    0.000000
Total CMx   (    0%):    0.000573 | Pressure (   99%):    0.000573 | Friction (    0%):    0.000000 | Momentum (    0%):    0.000000
Total CMy   (    0%):   -0.000237 | Pressure (  100%):   -0.000237 | Friction (    0%):    0.000000 | Momentum (    0%):    0.000000
Total CMz   (   22%):    0.005923 | Pressure (   99%):    0.005923 | Friction (    0%):    0.000000 | Momentum (    0%):    0.000000
Total CFx   (    0%):    0.000059 | Pressure (   99%):    0.000059 | Friction (    0%):    0.000000 | Momentum (    0%):    0.000000
Total CFy   (   31%):    0.009238 | Pressure (   99%):    0.009238 | Friction (    0%):    0.000000 | Momentum (    0%):    0.000000
Total CFz   (    0%):    0.000479 | Pressure (   99%):    0.000479 | Friction (    0%):    0.000000 | Momentum (    0%):    0.000000

