
-------------------------------------------------------------------------
|    ___ _   _ ___                                                      |
|   / __| | | |_  )   Release 8.0.1 "Harrier"                           |
|   \__ \ |_| |/ /                                                      |
|   |___/\___//___|   Suite (Computational Fluid Dynamics Code)         |
|                                                                       |
-------------------------------------------------------------------------
| SU2 Project Website: https://su2code.github.io                        |
|                                                                       |
| The SU2 Project is maintained by the SU2 Foundation                   |
| (http://su2foundation.org)                                            |
-------------------------------------------------------------------------
| Copyright 2012-2024, SU2 Contributors                                 |
|                                                                       |
| SU2 is free software; you can redistribute it and/or                  |
| modify it under the terms of the GNU Lesser General Public            |
| License as published by the Free Software Foundation; either          |
| version 2.1 of the License, or (at your option) any later version.    |
|                                                                       |
| SU2 is distributed in the hope that it will be useful,                |
| but WITHOUT ANY WARRANTY; without even the implied warranty of        |
| MERCHANTABILITY or FITNESS FOR A PARTICULAR PURPOSE. See the GNU      |
| Lesser General Public License for more details.                       |
|                                                                       |
| You should have received a copy of the GNU Lesser General Public      |
| License along with SU2. If not, see <http://www.gnu.org/licenses/>.   |
-------------------------------------------------------------------------


Problem definition:

Compressible Euler equations.
Mach number: 0.8395.
Angle of attack (AoA): 6.12 deg, and angle of sideslip (AoS): 0 deg.
Non-Dimensional simulation (V=1.0, Rho=1.0, T=1.0 at the farfield).
The reference area is 0.758602 m^2.
The reference length is 1 m.


Problem definition:

Inviscid flow: Computing density based on free-stream
temperature and pressure using the ideal gas law.
Force coefficients computed using free-stream values.
-- Input conditions:
Fluid Model: STANDARD_AIR 
Specific gas constant: 287.058 N.m/kg.K.
Specific gas constant (non-dim): 1.01352
Specific Heat Ratio: 1.4000 
Free-stream static pressure: 101325 Pa.
Free-stream total pressure: 160751 Pa.
Free-stream temperature: 288.15 K.
Free-stream total temperature: 328.765 K.
Free-stream density: 1.22498 kg/m^3.
Free-stream velocity: (284.051, 0, 30.4566) m/s. Magnitude: 285.679 m/s.
Free-stream total energy per unit mass: 247596 m^2/s^2.
-- Reference values:
Reference specific gas constant: 283.23 N.m/kg.K.
Reference pressure: 99973.8 Pa.
Reference temperature: 288.15 K.
Reference density: 1.22498 kg/m^3.
Reference velocity: 285.679 m/s.
Reference energy per unit mass: 81612.7 m^2/s^2.
-- Resulting non-dimensional state:
Mach number (non-dim): 0.8395
Specific gas constant (non-dim): 1.01352
Free-stream temperature (non-dim): 1
Free-stream pressure (non-dim): 1.01352
Free-stream density (non-dim): 1
Free-stream velocity (non-dim): (0.994301, 0, 0.106611). Magnitude: 1
Free-stream total energy per unit mass (non-dim): 3.03379


Forces breakdown:

Center of Pressure: X=-0.011200Z+0.494130 m.

NOTE: Multiply forces by the non-dimensional factor: 0.379301, and the reference factor: 99973.765264
to obtain the dimensional force.

Total CL:       0.589735 | Pressure (   99%):    0.589735 | Friction (    0%):    0.000000 | Momentum (    0%):    0.000000
Total CD:       0.056560 | Pressure (   99%):    0.056560 | Friction (    0%):    0.000000 | Momentum (    0%):    0.000000
Total CSF:      0.027429 | Pressure (   99%):    0.027429 | Friction (    0%):    0.000000 | Momentum (    0%):    0.000000
Total CL/CD:   10.426748 | Pressure (   99%):   10.426748 | Friction (    0%):    0.000000 | Momentum (    0%):    0.000000
Total CMx:      0.313784 | Pressure (   99%):    0.313784 | Friction (    0%):    0.000000 | Momentum (    0%):    0.000000
Total CMy:     -0.144624 | Pressure (  100%):   -0.144624 | Friction (    0%):    0.000000 | Momentum (    0%):    0.000000
Total CMz:      0.022321 | Pressure (   99%):    0.022321 | Friction (    0%):    0.000000 | Momentum (    0%):    0.000000
Total CFx:     -0.006635 | Pressure (  100%):   -0.006635 | Friction (    0%):    0.000000 | Momentum (    0%):    0.000000
Total CFy:      0.027429 | Pressure (   99%):    0.027429 | Friction (    0%):    0.000000 | Momentum (    0%):    0.000000
Total CFz:      0.592404 | Pressure (   99%):    0.592404 | Friction (    0%):    0.000000 | Momentum (    0%):    0.000000


Surface name: UPPER_SIDE

Total CL    (   99%):    0.588579 | Pressure (   99%):    0.588579 | Friction (    0%):    0.000000 | Momentum (    0%):    0.000000
Total CD    (   66%):    0.037716 | Pressure (   99%):    0.037716 | Friction (    0%):    0.000000 | Momentum (    0%):    0.000000
Total CSF   (   80%):    0.022152 | Pressure (   99%):    0.022152 | Friction (    0%):    0.000000 | Momentum (    0%):    0.000000
Total CL/CD (  149%):   15.605461 | Pressure (  100%):   15.605461 | Friction (    0%):    0.000000 | Momentum (    0%):    0.000000
Total CMx   (  102%):    0.323129 | Pressure (   99%):    0.323129 | Friction (    0%):    0.000000 | Momentum (    0%):    0.000000
Total CMy   (  105%):   -0.152577 | Pressure (  100%):   -0.152577 | Friction (    0%):    0.000000 | Momentum (    0%):    0.000000
Total CMz   (   99%):    0.022176 | Pressure (   99%):    0.022176 | Friction (    0%):    0.000000 | Momentum (    0%):    0.000000
Total CFx   (  380%):   -0.025248 | Pressure (  100%):   -0.025248 | Friction (    0%):    0.000000 | Momentum (    0%):    0.000000
Total CFy   (   80%):    0.022152 | Pressure (   99%):    0.022152 | Friction (    0%):    0.000000 | Momentum (    0%):    0.000000
Total CFz   (   99%):    0.589246 | Pressure (   99%):    0.589246 | Friction (    0%):    0.000000 | Momentum (    0%):    0.000000

Surface name: LOWER_SIDE

Total CL    (    0%):   -0.000731 | Pressure (  100%):   -0.000731 | Friction (    0%):    0.000000 | Momentum (    0%):    0.000000
Total CD    (   33%):    0.018800 | Pressure (   99%):    0.018800 | Friction (    0%):    0.000000 | Momentum (    0%):    0.000000
Total CSF   (  -39%):   -0.010701 | Pressure (  100%):   -0.010701 | Friction (    0%):    0.000000 | Momentum (    0%):    0.000000
Total CL/CD (    0%):   -0.038880 | Pressure (  100%):   -0.038880 | Friction (    0%):    0.000000 | Momentum (    0%):    0.000000
Total CMx   (   -3%):   -0.011591 | Pressure (  100%):   -0.011591 | Friction (    0%):    0.000000 | Momentum (    0%):    0.000000
Total CMy   (   -6%):    0.008873 | Pressure (   99%):    0.008873 | Friction (    0%):    0.000000 | Momentum (    0%):    0.000000
Total CMz   (  -44%):   -0.009959 | Pressure (  100%):   -0.009959 | Friction (    0%):    0.000000 | Momentum (    0%):    0.000000
Total CFx   ( -282%):    0.018771 | Pressure (   99%):    0.018771 | Friction (    0%):    0.000000 | Momentum (    0%):    0.000000
Total CFy   (  -39%):   -0.010701 | Pressure (  100%):   -0.010701 | Friction (    0%):    0.000000 | Momentum (    0%):    0.000000
Total CFz   (    0%):    0.001278 | Pressure (   99%):    0.001278 | Friction (    0%):    0.000000 | Momentum (    0%):    0.000000

Surface name: TIP

Total CL    (    0%):    0.001887 | Pressure (   99%):    0.001887 | Friction (    0%):    0.000000 | Momentum (    0%):    0.000000
Total CD    (    0%):    0.000043 | Pressure (   99%):    0.000043 | Friction (    0%):    0.000000 | Momentum (    0%):    0.000000
Total CSF   (   58%):    0.015979 | Pressure (   99%):    0.015979 | Friction (    0%):    0.000000 | Momentum (    0%):    0.000000
Total CL/CD (  418%):   43.599308 | Pressure (  100%):   43.599308 | Friction (    0%):    0.000000 | Momentum (    0%):    0.000000
Total CMx   (    0%):    0.002246 | Pressure (   99%):    0.002246 | Friction (    0%):    0.000000 | Momentum (    0%):    0.000000
Total CMy   (    0%):   -0.000920 | Pressure (  100%):   -0.000920 | Friction (    0%):    0.000000 | Momentum (    0%):    0.000000
Total CMz   (   45%):    0.010105 | Pressure (   99%):    0.010105 | Friction (    0%):    0.000000 | Momentum (    0%):    0.000000
Total CFx   (    2%):   -0.000158 | Pressure (  100%):   -0.000158 | Friction (    0%):    0.000000 | Momentum (    0%):    0.000000
Total CFy   (   58%):    0.015979 | Pressure (   99%):    0.015979 | Friction (    0%):    0.000000 | Momentum (    0%):    0.000000
Total CFz   (    0%):    0.001881 | Pressure (   99%):    0.001881 | Friction (    0%):    0.000000 | Momentum (    0%):    0.000000

