
-------------------------------------------------------------------------
|    ___ _   _ ___                                                      |
|   / __| | | |_  )   Release 8.0.0 "Harrier"                           |
|   \__ \ |_| |/ /                                                      |
|   |___/\___//___|   Suite (Computational Fluid Dynamics Code)         |
|                                                                       |
-------------------------------------------------------------------------
| SU2 Project Website: https://su2code.github.io                        |
|                                                                       |
| The SU2 Project is maintained by the SU2 Foundation                   |
| (http://su2foundation.org)                                            |
-------------------------------------------------------------------------
| Copyright 2012-2023, SU2 Contributors                                 |
|                                                                       |
| SU2 is free software; you can redistribute it and/or                  |
| modify it under the terms of the GNU Lesser General Public            |
| License as published by the Free Software Foundation; either          |
| version 2.1 of the License, or (at your option) any later version.    |
|                                                                       |
| SU2 is distributed in the hope that it will be useful,                |
| but WITHOUT ANY WARRANTY; without even the implied warranty of        |
| MERCHANTABILITY or FITNESS FOR A PARTICULAR PURPOSE. See the GNU      |
| Lesser General Public License for more details.                       |
|                                                                       |
| You should have received a copy of the GNU Lesser General Public      |
| License along with SU2. If not, see <http://www.gnu.org/licenses/>.   |
-------------------------------------------------------------------------


Problem definition:

Compressible Euler equations.
Mach number: 0.3.
Angle of attack (AoA): 3.06 deg, and angle of sideslip (AoS): 0 deg.
Non-Dimensional simulation (V=1.0, Rho=1.0, T=1.0 at the farfield).
The reference area is 0.758602 m^2.
The reference length is 1 m.


Problem definition:

Inviscid flow: Computing density based on free-stream
temperature and pressure using the ideal gas law.
Force coefficients computed using free-stream values.
-- Input conditions:
Fluid Model: STANDARD_AIR 
Specific gas constant: 287.058 N.m/kg.K.
Specific gas constant (non-dim): 7.93651
Specific Heat Ratio: 1.4000 
Free-stream static pressure: 101325 Pa.
Free-stream total pressure: 107853 Pa.
Free-stream temperature: 288.15 K.
Free-stream total temperature: 293.337 K.
Free-stream density: 1.22498 kg/m^3.
Free-stream velocity: (101.944, 0, 5.44969) m/s. Magnitude: 102.089 m/s.
Free-stream total energy per unit mass: 212000 m^2/s^2.
-- Reference values:
Reference specific gas constant: 36.1693 N.m/kg.K.
Reference pressure: 12767 Pa.
Reference temperature: 288.15 K.
Reference density: 1.22498 kg/m^3.
Reference velocity: 102.089 m/s.
Reference energy per unit mass: 10422.2 m^2/s^2.
-- Resulting non-dimensional state:
Mach number (non-dim): 0.3
Specific gas constant (non-dim): 7.93651
Free-stream temperature (non-dim): 1
Free-stream pressure (non-dim): 7.93651
Free-stream density (non-dim): 1
Free-stream velocity (non-dim): (0.998574, 0, 0.0533817). Magnitude: 1
Free-stream total energy per unit mass (non-dim): 20.3413


Forces breakdown:

Center of Pressure: X=-0.031669Z+0.472893 m.

NOTE: Multiply forces by the non-dimensional factor: 0.379301, and the reference factor: 12766.950000
to obtain the dimensional force.

Total CL:       0.204073 | Pressure (   99%):    0.204073 | Friction (    0%):    0.000000 | Momentum (    0%):    0.000000
Total CD:       0.004439 | Pressure (   99%):    0.004439 | Friction (    0%):    0.000000 | Momentum (    0%):    0.000000
Total CSF:      0.011071 | Pressure (   99%):    0.011071 | Friction (    0%):    0.000000 | Momentum (    0%):    0.000000
Total CL/CD:   45.972236 | Pressure (  100%):   45.972236 | Friction (    0%):    0.000000 | Momentum (    0%):    0.000000
Total CMx:      0.108673 | Pressure (   99%):    0.108673 | Friction (    0%):    0.000000 | Momentum (    0%):    0.000000
Total CMy:     -0.045474 | Pressure (  100%):   -0.045474 | Friction (    0%):    0.000000 | Momentum (    0%):    0.000000
Total CMz:      0.009082 | Pressure (   99%):    0.009082 | Friction (    0%):    0.000000 | Momentum (    0%):    0.000000
Total CFx:     -0.006461 | Pressure (  100%):   -0.006461 | Friction (    0%):    0.000000 | Momentum (    0%):    0.000000
Total CFy:      0.011071 | Pressure (   99%):    0.011071 | Friction (    0%):    0.000000 | Momentum (    0%):    0.000000
Total CFz:      0.204019 | Pressure (   99%):    0.204019 | Friction (    0%):    0.000000 | Momentum (    0%):    0.000000


Surface name: UPPER_SIDE

Total CL    (  120%):    0.245527 | Pressure (   99%):    0.245527 | Friction (    0%):    0.000000 | Momentum (    0%):    0.000000
Total CD    ( -120%):   -0.005355 | Pressure (  100%):   -0.005355 | Friction (    0%):    0.000000 | Momentum (    0%):    0.000000
Total CSF   (  123%):    0.013669 | Pressure (   99%):    0.013669 | Friction (    0%):    0.000000 | Momentum (    0%):    0.000000
Total CL/CD (  -99%):  -45.854151 | Pressure (   99%):  -45.854151 | Friction (    0%):    0.000000 | Momentum (    0%):    0.000000
Total CMx   (  121%):    0.131716 | Pressure (   99%):    0.131716 | Friction (    0%):    0.000000 | Momentum (    0%):    0.000000
Total CMy   (  128%):   -0.058396 | Pressure (  100%):   -0.058396 | Friction (    0%):    0.000000 | Momentum (    0%):    0.000000
Total CMz   (  144%):    0.013153 | Pressure (   99%):    0.013153 | Friction (    0%):    0.000000 | Momentum (    0%):    0.000000
Total CFx   (  285%):   -0.018454 | Pressure (  100%):   -0.018454 | Friction (    0%):    0.000000 | Momentum (    0%):    0.000000
Total CFy   (  123%):    0.013669 | Pressure (   99%):    0.013669 | Friction (    0%):    0.000000 | Momentum (    0%):    0.000000
Total CFz   (  120%):    0.244891 | Pressure (   99%):    0.244891 | Friction (    0%):    0.000000 | Momentum (    0%):    0.000000

Surface name: LOWER_SIDE

Total CL    (  -20%):   -0.041818 | Pressure (  100%):   -0.041818 | Friction (    0%):    0.000000 | Momentum (    0%):    0.000000
Total CD    (  222%):    0.009868 | Pressure (   99%):    0.009868 | Friction (    0%):    0.000000 | Momentum (    0%):    0.000000
Total CSF   (  -57%):   -0.006341 | Pressure (  100%):   -0.006341 | Friction (    0%):    0.000000 | Momentum (    0%):    0.000000
Total CL/CD (   -9%):   -4.237752 | Pressure (  100%):   -4.237752 | Friction (    0%):    0.000000 | Momentum (    0%):    0.000000
Total CMx   (  -21%):   -0.023471 | Pressure (  100%):   -0.023471 | Friction (    0%):    0.000000 | Momentum (    0%):    0.000000
Total CMy   (  -28%):    0.013129 | Pressure (   99%):    0.013129 | Friction (    0%):    0.000000 | Momentum (    0%):    0.000000
Total CMz   (  -71%):   -0.006495 | Pressure (  100%):   -0.006495 | Friction (    0%):    0.000000 | Momentum (    0%):    0.000000
Total CFx   ( -187%):    0.012086 | Pressure (   99%):    0.012086 | Friction (    0%):    0.000000 | Momentum (    0%):    0.000000
Total CFy   (  -57%):   -0.006341 | Pressure (  100%):   -0.006341 | Friction (    0%):    0.000000 | Momentum (    0%):    0.000000
Total CFz   (  -20%):   -0.041231 | Pressure (  100%):   -0.041231 | Friction (    0%):    0.000000 | Momentum (    0%):    0.000000

Surface name: TIP

Total CL    (    0%):    0.000363 | Pressure (   99%):    0.000363 | Friction (    0%):    0.000000 | Momentum (    0%):    0.000000
Total CD    (   -1%):   -0.000074 | Pressure (  100%):   -0.000074 | Friction (    0%):    0.000000 | Momentum (    0%):    0.000000
Total CSF   (   33%):    0.003743 | Pressure (   99%):    0.003743 | Friction (    0%):    0.000000 | Momentum (    0%):    0.000000
Total CL/CD (  -10%):   -4.886814 | Pressure (  100%):   -4.886814 | Friction (    0%):    0.000000 | Momentum (    0%):    0.000000
Total CMx   (    0%):    0.000429 | Pressure (   99%):    0.000429 | Friction (    0%):    0.000000 | Momentum (    0%):    0.000000
Total CMy   (    0%):   -0.000207 | Pressure (  100%):   -0.000207 | Friction (    0%):    0.000000 | Momentum (    0%):    0.000000
Total CMz   (   26%):    0.002424 | Pressure (   99%):    0.002424 | Friction (    0%):    0.000000 | Momentum (    0%):    0.000000
Total CFx   (    1%):   -0.000094 | Pressure (  100%):   -0.000094 | Friction (    0%):    0.000000 | Momentum (    0%):    0.000000
Total CFy   (   33%):    0.003743 | Pressure (   99%):    0.003743 | Friction (    0%):    0.000000 | Momentum (    0%):    0.000000
Total CFz   (    0%):    0.000359 | Pressure (   99%):    0.000359 | Friction (    0%):    0.000000 | Momentum (    0%):    0.000000

