
-------------------------------------------------------------------------
|    ___ _   _ ___                                                      |
|   / __| | | |_  )   Release 8.0.1 "Harrier"                           |
|   \__ \ |_| |/ /                                                      |
|   |___/\___//___|   Suite (Computational Fluid Dynamics Code)         |
|                                                                       |
-------------------------------------------------------------------------
| SU2 Project Website: https://su2code.github.io                        |
|                                                                       |
| The SU2 Project is maintained by the SU2 Foundation                   |
| (http://su2foundation.org)                                            |
-------------------------------------------------------------------------
| Copyright 2012-2024, SU2 Contributors                                 |
|                                                                       |
| SU2 is free software; you can redistribute it and/or                  |
| modify it under the terms of the GNU Lesser General Public            |
| License as published by the Free Software Foundation; either          |
| version 2.1 of the License, or (at your option) any later version.    |
|                                                                       |
| SU2 is distributed in the hope that it will be useful,                |
| but WITHOUT ANY WARRANTY; without even the implied warranty of        |
| MERCHANTABILITY or FITNESS FOR A PARTICULAR PURPOSE. See the GNU      |
| Lesser General Public License for more details.                       |
|                                                                       |
| You should have received a copy of the GNU Lesser General Public      |
| License along with SU2. If not, see <http://www.gnu.org/licenses/>.   |
-------------------------------------------------------------------------


Problem definition:

Compressible Euler equations.
Mach number: 0.3.
Angle of attack (AoA): 0 deg, and angle of sideslip (AoS): 0 deg.
Non-Dimensional simulation (V=1.0, Rho=1.0, T=1.0 at the farfield).
The reference area is 0.758602 m^2.
The reference length is 1 m.


Problem definition:

Inviscid flow: Computing density based on free-stream
temperature and pressure using the ideal gas law.
Force coefficients computed using free-stream values.
-- Input conditions:
Fluid Model: STANDARD_AIR 
Specific gas constant: 287.058 N.m/kg.K.
Specific gas constant (non-dim): 7.93651
Specific Heat Ratio: 1.4000 
Free-stream static pressure: 101325 Pa.
Free-stream total pressure: 107853 Pa.
Free-stream temperature: 288.15 K.
Free-stream total temperature: 293.337 K.
Free-stream density: 1.22498 kg/m^3.
Free-stream velocity: (102.089, 0, 0) m/s. Magnitude: 102.089 m/s.
Free-stream total energy per unit mass: 212000 m^2/s^2.
-- Reference values:
Reference specific gas constant: 36.1693 N.m/kg.K.
Reference pressure: 12767 Pa.
Reference temperature: 288.15 K.
Reference density: 1.22498 kg/m^3.
Reference velocity: 102.089 m/s.
Reference energy per unit mass: 10422.2 m^2/s^2.
-- Resulting non-dimensional state:
Mach number (non-dim): 0.3
Specific gas constant (non-dim): 7.93651
Free-stream temperature (non-dim): 1
Free-stream pressure (non-dim): 7.93651
Free-stream density (non-dim): 1
Free-stream velocity (non-dim): (1, 0, 0). Magnitude: 1
Free-stream total energy per unit mass (non-dim): 20.3413


Forces breakdown:

Center of Pressure: X=-1.519054Z+0.620173 m.

NOTE: Multiply forces by the non-dimensional factor: 0.379301, and the reference factor: 12766.950000
to obtain the dimensional force.

Total CL:      -0.000511 | Pressure (  100%):   -0.000511 | Friction (    0%):    0.000000 | Momentum (    0%):    0.000000
Total CD:       0.000776 | Pressure (   99%):    0.000776 | Friction (    0%):    0.000000 | Momentum (    0%):    0.000000
Total CSF:      0.005018 | Pressure (   99%):    0.005018 | Friction (    0%):    0.000000 | Momentum (    0%):    0.000000
Total CL/CD:   -0.658305 | Pressure (  100%):   -0.658305 | Friction (    0%):    0.000000 | Momentum (    0%):    0.000000
Total CMx:     -0.000282 | Pressure (  100%):   -0.000282 | Friction (    0%):    0.000000 | Momentum (    0%):    0.000000
Total CMy:      0.000189 | Pressure (   99%):    0.000189 | Friction (    0%):    0.000000 | Momentum (    0%):    0.000000
Total CMz:      0.003189 | Pressure (   99%):    0.003189 | Friction (    0%):    0.000000 | Momentum (    0%):    0.000000
Total CFx:      0.000776 | Pressure (   99%):    0.000776 | Friction (    0%):    0.000000 | Momentum (    0%):    0.000000
Total CFy:      0.005018 | Pressure (   99%):    0.005018 | Friction (    0%):    0.000000 | Momentum (    0%):    0.000000
Total CFz:     -0.000511 | Pressure (  100%):   -0.000511 | Friction (    0%):    0.000000 | Momentum (    0%):    0.000000


Surface name: UPPER_SIDE

Total CL    (-26920%):    0.137537 | Pressure (   99%):    0.137537 | Friction (    0%):    0.000000 | Momentum (    0%):    0.000000
Total CD    (   58%):    0.000457 | Pressure (   99%):    0.000457 | Friction (    0%):    0.000000 | Momentum (    0%):    0.000000
Total CSF   (   30%):    0.001531 | Pressure (   99%):    0.001531 | Friction (    0%):    0.000000 | Momentum (    0%):    0.000000
Total CL/CD (-45712%):  300.927720 | Pressure (  100%):  300.927720 | Friction (    0%):    0.000000 | Momentum (    0%):    0.000000
Total CMx   (-26085%):    0.073598 | Pressure (   99%):    0.073598 | Friction (    0%):    0.000000 | Momentum (    0%):    0.000000
Total CMy   (-18342%):   -0.034689 | Pressure (  100%):   -0.034689 | Friction (    0%):    0.000000 | Momentum (    0%):    0.000000
Total CMz   (   29%):    0.000953 | Pressure (   99%):    0.000953 | Friction (    0%):    0.000000 | Momentum (    0%):    0.000000
Total CFx   (   58%):    0.000457 | Pressure (   99%):    0.000457 | Friction (    0%):    0.000000 | Momentum (    0%):    0.000000
Total CFy   (   30%):    0.001531 | Pressure (   99%):    0.001531 | Friction (    0%):    0.000000 | Momentum (    0%):    0.000000
Total CFz   (-26920%):    0.137537 | Pressure (   99%):    0.137537 | Friction (    0%):    0.000000 | Momentum (    0%):    0.000000

Surface name: LOWER_SIDE

Total CL    (27019%):   -0.138045 | Pressure (  100%):   -0.138045 | Friction (    0%):    0.000000 | Momentum (    0%):    0.000000
Total CD    (   59%):    0.000461 | Pressure (   99%):    0.000461 | Friction (    0%):    0.000000 | Momentum (    0%):    0.000000
Total CSF   (   30%):    0.001538 | Pressure (   99%):    0.001538 | Friction (    0%):    0.000000 | Momentum (    0%):    0.000000
Total CL/CD (45453%): -299.224768 | Pressure (  100%): -299.224768 | Friction (    0%):    0.000000 | Momentum (    0%):    0.000000
Total CMx   (26184%):   -0.073876 | Pressure (  100%):   -0.073876 | Friction (    0%):    0.000000 | Momentum (    0%):    0.000000
Total CMy   (18441%):    0.034876 | Pressure (   99%):    0.034876 | Friction (    0%):    0.000000 | Momentum (    0%):    0.000000
Total CMz   (   29%):    0.000955 | Pressure (   99%):    0.000955 | Friction (    0%):    0.000000 | Momentum (    0%):    0.000000
Total CFx   (   59%):    0.000461 | Pressure (   99%):    0.000461 | Friction (    0%):    0.000000 | Momentum (    0%):    0.000000
Total CFy   (   30%):    0.001538 | Pressure (   99%):    0.001538 | Friction (    0%):    0.000000 | Momentum (    0%):    0.000000
Total CFz   (27019%):   -0.138045 | Pressure (  100%):   -0.138045 | Friction (    0%):    0.000000 | Momentum (    0%):    0.000000

Surface name: TIP

Total CL    (    0%):   -0.000003 | Pressure (  100%):   -0.000003 | Friction (    0%):    0.000000 | Momentum (    0%):    0.000000
Total CD    (  -18%):   -0.000142 | Pressure (  100%):   -0.000142 | Friction (    0%):    0.000000 | Momentum (    0%):    0.000000
Total CSF   (   38%):    0.001950 | Pressure (   99%):    0.001950 | Friction (    0%):    0.000000 | Momentum (    0%):    0.000000
Total CL/CD (   -3%):    0.024099 | Pressure (   99%):    0.024099 | Friction (    0%):    0.000000 | Momentum (    0%):    0.000000
Total CMx   (    1%):   -0.000004 | Pressure (  100%):   -0.000004 | Friction (    0%):    0.000000 | Momentum (    0%):    0.000000
Total CMy   (    0%):    0.000002 | Pressure (   99%):    0.000002 | Friction (    0%):    0.000000 | Momentum (    0%):    0.000000
Total CMz   (   40%):    0.001281 | Pressure (   99%):    0.001281 | Friction (    0%):    0.000000 | Momentum (    0%):    0.000000
Total CFx   (  -18%):   -0.000142 | Pressure (  100%):   -0.000142 | Friction (    0%):    0.000000 | Momentum (    0%):    0.000000
Total CFy   (   38%):    0.001950 | Pressure (   99%):    0.001950 | Friction (    0%):    0.000000 | Momentum (    0%):    0.000000
Total CFz   (    0%):   -0.000003 | Pressure (  100%):   -0.000003 | Friction (    0%):    0.000000 | Momentum (    0%):    0.000000

