xflr5 v6.61

Plane name :        onera
Polar name :        T1-102.1 m/s-VLM1-Inviscid
Freestream speed : 102.089 m/s


   alpha      Beta       CL          CDi        CDv        CD         CY         Cl         Cm         Cn        Cni       QInf        XCP
    0.000     0.000   0.000000   0.000000   0.000000   0.000000   0.000000   0.000000   0.000000   0.000000   0.000000  102.0890     0.0000
    3.060     0.000   0.375402   0.005829   0.000000   0.005829  -0.000000   0.000000  -0.269793   0.000000   0.000000  102.0890     0.4645


