xflr5 v6.61

Plane name :        onera
Polar name :        T1-285.7 m/s-Panel-Inviscid
Freestream speed : 285.679 m/s


   alpha      Beta       CL          CDi        CDv        CD         CY         Cl         Cm         Cn        Cni       QInf        XCP
    0.000     0.000   0.000000   0.000000   0.000000   0.000000   0.000000   0.000000  -0.000000  -0.000000  -0.000000  285.6790     0.9509
    3.060     0.000   0.388616   0.006374   0.000000   0.006374   0.000000   0.000014  -0.281032  -0.000008  -0.000008  285.6790     0.4649
    6.120     0.000   0.774090   0.025315   0.000000   0.025315   0.000000   0.000055  -0.557845  -0.000021  -0.000021  285.6790     0.4634


