xflr5 v6.61

Plane name :        onera
Polar name :        T1-102.1 m/s-Panel-Inviscid
Freestream speed : 102.089 m/s


   alpha      Beta       CL          CDi        CDv        CD         CY         Cl         Cm         Cn        Cni       QInf        XCP
    0.000     0.000   0.000000  -0.000000   0.000000  -0.000000   0.000000   0.000000  -0.000000  -0.000000  -0.000000  102.0890     0.7500
    3.060     0.000   0.382498   0.006073   0.000000   0.006073   0.000000  -0.000084  -0.281728  -0.000009  -0.000009  102.0890     0.4732


