
-------------------------------------------------------------------------
|    ___ _   _ ___                                                      |
|   / __| | | |_  )   Release 8.0.1 "Harrier"                           |
|   \__ \ |_| |/ /                                                      |
|   |___/\___//___|   Suite (Computational Fluid Dynamics Code)         |
|                                                                       |
-------------------------------------------------------------------------
| SU2 Project Website: https://su2code.github.io                        |
|                                                                       |
| The SU2 Project is maintained by the SU2 Foundation                   |
| (http://su2foundation.org)                                            |
-------------------------------------------------------------------------
| Copyright 2012-2024, SU2 Contributors                                 |
|                                                                       |
| SU2 is free software; you can redistribute it and/or                  |
| modify it under the terms of the GNU Lesser General Public            |
| License as published by the Free Software Foundation; either          |
| version 2.1 of the License, or (at your option) any later version.    |
|                                                                       |
| SU2 is distributed in the hope that it will be useful,                |
| but WITHOUT ANY WARRANTY; without even the implied warranty of        |
| MERCHANTABILITY or FITNESS FOR A PARTICULAR PURPOSE. See the GNU      |
| Lesser General Public License for more details.                       |
|                                                                       |
| You should have received a copy of the GNU Lesser General Public      |
| License along with SU2. If not, see <http://www.gnu.org/licenses/>.   |
-------------------------------------------------------------------------


Problem definition:

Compressible Euler equations.
Mach number: 0.2.
Angle of attack (AoA): 2 deg, and angle of sideslip (AoS): 0 deg.
Non-Dimensional simulation (V=1.0, Rho=1.0, T=1.0 at the farfield).
The reference area is 13.28 m^2.
The reference length is 2.65 m.


Problem definition:

Inviscid flow: Computing density based on free-stream
temperature and pressure using the ideal gas law.
Force coefficients computed using free-stream values.
-- Input conditions:
Fluid Model: STANDARD_AIR 
Specific gas constant: 287.058 N.m/kg.K.
Specific gas constant (non-dim): 17.8571
Specific Heat Ratio: 1.4000 
Free-stream static pressure: 101325 Pa.
Free-stream total pressure: 104191 Pa.
Free-stream temperature: 258.65 K.
Free-stream total temperature: 260.719 K.
Free-stream density: 1.36469 kg/m^3.
Free-stream velocity: (64.4422, 0, 2.25037) m/s. Magnitude: 64.4815 m/s.
Free-stream total energy per unit mass: 187698 m^2/s^2.
-- Reference values:
Reference specific gas constant: 16.0752 N.m/kg.K.
Reference pressure: 5674.2 Pa.
Reference temperature: 258.65 K.
Reference density: 1.36469 kg/m^3.
Reference velocity: 64.4815 m/s.
Reference energy per unit mass: 4157.86 m^2/s^2.
-- Resulting non-dimensional state:
Mach number (non-dim): 0.2
Specific gas constant (non-dim): 17.8571
Free-stream temperature (non-dim): 1
Free-stream pressure (non-dim): 17.8571
Free-stream density (non-dim): 1
Free-stream velocity (non-dim): (0.999391, 0, 0.0348995). Magnitude: 1
Free-stream total energy per unit mass (non-dim): 45.1429


Forces breakdown:

Center of Pressure: X=-0.022479Z+1.915910 m.

NOTE: Multiply forces by the non-dimensional factor: 6.640000, and the reference factor: 5674.200000
to obtain the dimensional force.

Total CL:       0.061462 | Pressure (   99%):    0.061462 | Friction (    0%):    0.000000 | Momentum (    0%):    0.000000
Total CD:       0.000764 | Pressure (   99%):    0.000764 | Friction (    0%):    0.000000 | Momentum (    0%):    0.000000
Total CSF:      0.003336 | Pressure (   99%):    0.003336 | Friction (    0%):    0.000000 | Momentum (    0%):    0.000000
Total CL/CD:   80.439957 | Pressure (  100%):   80.439957 | Friction (    0%):    0.000000 | Momentum (    0%):    0.000000
Total CMx:      0.031869 | Pressure (   99%):    0.031869 | Friction (    0%):    0.000000 | Momentum (    0%):    0.000000
Total CMy:     -0.021703 | Pressure (  100%):   -0.021703 | Friction (    0%):    0.000000 | Momentum (    0%):    0.000000
Total CMz:      0.001917 | Pressure (   99%):    0.001917 | Friction (    0%):    0.000000 | Momentum (    0%):    0.000000
Total CFx:     -0.001381 | Pressure (  100%):   -0.001381 | Friction (    0%):    0.000000 | Momentum (    0%):    0.000000
Total CFy:      0.003336 | Pressure (   99%):    0.003336 | Friction (    0%):    0.000000 | Momentum (    0%):    0.000000
Total CFz:      0.061451 | Pressure (   99%):    0.061451 | Friction (    0%):    0.000000 | Momentum (    0%):    0.000000


Surface name: WING_TRAP

Total CL    (   39%):    0.024069 | Pressure (   99%):    0.024069 | Friction (    0%):    0.000000 | Momentum (    0%):    0.000000
Total CD    (   97%):    0.000747 | Pressure (   99%):    0.000747 | Friction (    0%):    0.000000 | Momentum (    0%):    0.000000
Total CSF   (   65%):    0.002171 | Pressure (   99%):    0.002171 | Friction (    0%):    0.000000 | Momentum (    0%):    0.000000
Total CL/CD (   40%):   32.224255 | Pressure (  100%):   32.224255 | Friction (    0%):    0.000000 | Momentum (    0%):    0.000000
Total CMx   (   14%):    0.004648 | Pressure (   99%):    0.004648 | Friction (    0%):    0.000000 | Momentum (    0%):    0.000000
Total CMy   (   12%):   -0.002793 | Pressure (  100%):   -0.002793 | Friction (    0%):    0.000000 | Momentum (    0%):    0.000000
Total CMz   (   18%):    0.000363 | Pressure (   99%):    0.000363 | Friction (    0%):    0.000000 | Momentum (    0%):    0.000000
Total CFx   (    6%):   -0.000094 | Pressure (  100%):   -0.000094 | Friction (    0%):    0.000000 | Momentum (    0%):    0.000000
Total CFy   (   65%):    0.002171 | Pressure (   99%):    0.002171 | Friction (    0%):    0.000000 | Momentum (    0%):    0.000000
Total CFz   (   39%):    0.024081 | Pressure (   99%):    0.024081 | Friction (    0%):    0.000000 | Momentum (    0%):    0.000000

Surface name: WING_SWEEP

Total CL    (   60%):    0.037365 | Pressure (   99%):    0.037365 | Friction (    0%):    0.000000 | Momentum (    0%):    0.000000
Total CD    (    1%):    0.000015 | Pressure (   99%):    0.000015 | Friction (    0%):    0.000000 | Momentum (    0%):    0.000000
Total CSF   (   30%):    0.001005 | Pressure (   99%):    0.001005 | Friction (    0%):    0.000000 | Momentum (    0%):    0.000000
Total CL/CD ( 3081%): 2478.750969 | Pressure (  100%): 2478.750969 | Friction (    0%):    0.000000 | Momentum (    0%):    0.000000
Total CMx   (   85%):    0.027159 | Pressure (   99%):    0.027159 | Friction (    0%):    0.000000 | Momentum (    0%):    0.000000
Total CMy   (   87%):   -0.018905 | Pressure (  100%):   -0.018905 | Friction (    0%):    0.000000 | Momentum (    0%):    0.000000
Total CMz   (   76%):    0.001457 | Pressure (   99%):    0.001457 | Friction (    0%):    0.000000 | Momentum (    0%):    0.000000
Total CFx   (   93%):   -0.001289 | Pressure (  100%):   -0.001289 | Friction (    0%):    0.000000 | Momentum (    0%):    0.000000
Total CFy   (   30%):    0.001005 | Pressure (   99%):    0.001005 | Friction (    0%):    0.000000 | Momentum (    0%):    0.000000
Total CFz   (   60%):    0.037343 | Pressure (   99%):    0.037343 | Friction (    0%):    0.000000 | Momentum (    0%):    0.000000

Surface name: WING_TIP

Total CL    (    0%):    0.000028 | Pressure (   99%):    0.000028 | Friction (    0%):    0.000000 | Momentum (    0%):    0.000000
Total CD    (    0%):    0.000002 | Pressure (   99%):    0.000002 | Friction (    0%):    0.000000 | Momentum (    0%):    0.000000
Total CSF   (    4%):    0.000160 | Pressure (   99%):    0.000160 | Friction (    0%):    0.000000 | Momentum (    0%):    0.000000
Total CL/CD (   16%):   13.441221 | Pressure (  100%):   13.441221 | Friction (    0%):    0.000000 | Momentum (    0%):    0.000000
Total CMx   (    0%):    0.000061 | Pressure (   99%):    0.000061 | Friction (    0%):    0.000000 | Momentum (    0%):    0.000000
Total CMy   (    0%):   -0.000005 | Pressure (  100%):   -0.000005 | Friction (    0%):    0.000000 | Momentum (    0%):    0.000000
Total CMz   (    5%):    0.000097 | Pressure (   99%):    0.000097 | Friction (    0%):    0.000000 | Momentum (    0%):    0.000000
Total CFx   (    0%):    0.000001 | Pressure (   99%):    0.000001 | Friction (    0%):    0.000000 | Momentum (    0%):    0.000000
Total CFy   (    4%):    0.000160 | Pressure (   99%):    0.000160 | Friction (    0%):    0.000000 | Momentum (    0%):    0.000000
Total CFz   (    0%):    0.000028 | Pressure (   99%):    0.000028 | Friction (    0%):    0.000000 | Momentum (    0%):    0.000000

